CM Moxon Rectangle — 3g-Aerial calculator
CE 
GW     1    37   0.00000E+00 -3.02048E+00  5.00000E+00  0.00000E+00  3.02048E+00  5.00000E+00  4.50000E-04
GW     2     7   0.00000E+00  3.02048E+00  5.00000E+00 -9.28743E-01  3.02048E+00  5.00000E+00  4.50000E-04
GW     3     7   0.00000E+00 -3.02048E+00  5.00000E+00 -9.28743E-01 -3.02048E+00  5.00000E+00  4.50000E-04
GW     4     7  -1.07108E+00  3.02048E+00  5.00000E+00 -2.18833E+00  3.02048E+00  5.00000E+00  4.50000E-04
GW     5     7  -1.07108E+00 -3.02048E+00  5.00000E+00 -2.18833E+00 -3.02048E+00  5.00000E+00  4.50000E-04
GW     6    37  -2.18833E+00 -3.02048E+00  5.00000E+00 -2.18833E+00  3.02048E+00  5.00000E+00  4.50000E-04
GM     0     0   0.00000E+00  0.00000E+00  0.00000E+00  0.00000E+00  0.00000E+00  5.00000E+00  1.00000E+00
GE     0     0   0.00000E+00  0.00000E+00  0.00000E+00  0.00000E+00  0.00000E+00  0.00000E+00  0.00000E+00
GN     2     0     0      0  1.30000E+01  5.00000E-03  0.00000E+00  0.00000E+00  0.00000E+00  0.00000E+00
EX     0     1    19      0  1.00000E+00  0.00000E+00  0.00000E+00  0.00000E+00  0.00000E+00  0.00000E+00
FR     0    10     0      0  1.75000E+01  2.22222E-01  1.95000E+01  0.00000E+00  0.00000E+00  0.00000E+00
RP     0    90   361   1000  0.00000E+00  0.00000E+00  1.00000E+00  1.00000E+00  0.00000E+00  0.00000E+00
EN     0     0     0      0  0.00000E+00  0.00000E+00  0.00000E+00  0.00000E+00  0.00000E+00  0.00000E+00
